Version 4
SHEET 1 2728 680
WIRE 32 -48 -80 -48
WIRE 160 -48 32 -48
WIRE -416 32 -416 -80
WIRE -80 32 -80 -48
WIRE 160 32 160 -48
WIRE 2528 32 2528 0
WIRE 2528 32 2400 32
WIRE 304 48 224 48
WIRE 2528 48 2528 32
WIRE 2528 48 2512 48
WIRE 1920 64 1920 32
WIRE 1920 64 1792 64
WIRE 1920 80 1920 64
WIRE 1920 80 1904 80
WIRE 304 96 304 48
WIRE 2512 96 2512 48
WIRE 1904 128 1904 80
WIRE 912 144 912 80
WIRE 1280 144 1280 80
WIRE 2400 144 2400 112
WIRE 2400 144 2336 144
WIRE 2448 144 2400 144
WIRE -416 160 -416 32
WIRE -80 160 -80 128
WIRE 224 160 224 48
WIRE 224 160 -80 160
WIRE 160 176 160 128
WIRE 272 176 160 176
WIRE 304 176 272 176
WIRE 1792 176 1792 144
WIRE 1792 176 1728 176
WIRE 1840 176 1792 176
WIRE 2336 192 2336 144
WIRE 2672 192 2512 192
WIRE -80 208 -80 160
WIRE 160 208 160 176
WIRE 2512 208 2512 192
WIRE 1728 224 1728 176
WIRE 2064 224 1904 224
WIRE 1904 240 1904 224
WIRE 2272 240 2240 240
WIRE 912 256 912 240
WIRE 1024 256 912 256
WIRE 1664 272 1632 272
WIRE -416 288 -416 160
WIRE 912 288 912 256
WIRE 1280 288 1280 240
WIRE 1408 288 1280 288
WIRE 2512 304 2512 288
WIRE -80 336 -80 304
WIRE 32 336 -80 336
WIRE 160 336 160 304
WIRE 160 336 32 336
WIRE 1904 336 1904 320
WIRE 2336 384 2336 288
WIRE 1728 416 1728 320
WIRE -416 432 -416 288
WIRE -208 432 -416 432
WIRE 32 432 32 336
WIRE 32 432 -208 432
WIRE -208 464 -208 432
FLAG -144 80 V1
FLAG -144 256 V2
FLAG 96 80 V3
FLAG 96 256 V4
FLAG 32 -128 0
FLAG -208 464 0
FLAG -336 32 V2
FLAG -336 160 V3
FLAG -336 288 V4
FLAG 304 48 C1
FLAG 272 176 C2
FLAG 768 192 0
FLAG 912 0 0
FLAG 912 368 0
FLAG 1024 256 COIL1
FLAG 1136 192 0
FLAG 1280 0 0
FLAG 1280 368 0
FLAG 1408 288 COIL2
FLAG 1904 336 0
FLAG 1920 -48 0
FLAG 1728 416 0
FLAG 1552 272 0
FLAG 2512 304 0
FLAG 2528 -80 0
FLAG 2336 384 0
FLAG 2160 240 0
DATAFLAG 992 256 ""
DATAFLAG 1360 288 ""
DATAFLAG 2048 224 ""
DATAFLAG 2656 192 ""
SYMBOL ind 288 80 R0
SYMATTR InstName COIL
SYMATTR Value 1m
SYMBOL npn -144 32 R0
SYMATTR InstName Q1
SYMBOL npn 96 32 R0
SYMATTR InstName Q2
SYMBOL npn -144 208 R0
SYMATTR InstName Q3
SYMBOL npn 96 208 R0
SYMATTR InstName Q4
SYMBOL voltage -320 32 R90
WINDOW 0 -32 56 VBottom 2
WINDOW 3 32 56 VTop 2
WINDOW 123 0 0 Left 0
WINDOW 39 0 0 Left 0
SYMATTR InstName V2
SYMATTR Value 0
SYMBOL voltage -320 160 R90
WINDOW 0 -32 56 VBottom 2
WINDOW 3 32 56 VTop 2
WINDOW 123 0 0 Left 0
WINDOW 39 0 0 Left 0
SYMATTR InstName V3
SYMATTR Value 0
SYMBOL voltage -320 288 R90
WINDOW 0 -32 56 VBottom 2
WINDOW 3 32 56 VTop 2
WINDOW 123 0 0 Left 0
WINDOW 39 0 0 Left 0
SYMATTR InstName V4
SYMATTR Value 0
SYMBOL voltage -320 -80 R90
WINDOW 0 -32 56 VBottom 2
WINDOW 3 32 56 VTop 2
WINDOW 123 0 0 Left 0
WINDOW 39 0 0 Left 0
SYMATTR InstName V1
SYMATTR Value 5
SYMBOL voltage 32 -144 R0
SYMATTR InstName V5
SYMBOL npn 848 144 R0
SYMATTR InstName Q5
SYMBOL voltage 864 192 R90
WINDOW 0 -32 56 VBottom 2
WINDOW 3 32 56 VTop 2
WINDOW 123 0 0 Left 0
WINDOW 39 0 0 Left 0
SYMATTR InstName V6
SYMATTR Value 0
SYMBOL voltage 912 96 R180
WINDOW 0 24 96 Left 2
WINDOW 3 24 16 Left 2
WINDOW 123 0 0 Left 0
WINDOW 39 0 0 Left 0
SYMATTR InstName VS
SYMATTR Value 5
SYMBOL res 896 272 R0
SYMATTR InstName R1
SYMATTR Value 1000K
SYMBOL npn 1216 144 R0
SYMATTR InstName Q6
SYMBOL voltage 1232 192 R90
WINDOW 0 -32 56 VBottom 2
WINDOW 3 32 56 VTop 2
WINDOW 123 0 0 Left 0
WINDOW 39 0 0 Left 0
SYMATTR InstName V7
SYMATTR Value 5
SYMBOL voltage 1280 96 R180
WINDOW 0 24 96 Left 2
WINDOW 3 24 16 Left 2
WINDOW 123 0 0 Left 0
WINDOW 39 0 0 Left 0
SYMATTR InstName VS1
SYMATTR Value 5
SYMBOL res 1264 272 R0
SYMATTR InstName R2
SYMATTR Value 100K
SYMBOL pnp 1840 128 R0
SYMATTR InstName Q7
SYMBOL res 1888 224 R0
SYMATTR InstName R3
SYMATTR Value 100K
SYMBOL voltage 1920 48 R180
WINDOW 0 24 96 Left 2
WINDOW 3 24 16 Left 2
WINDOW 123 0 0 Left 0
WINDOW 39 0 0 Left 0
SYMATTR InstName V8
SYMATTR Value 5
SYMBOL npn 1664 224 R0
SYMATTR InstName Q9
SYMBOL res 1776 48 R0
SYMATTR InstName R6
SYMATTR Value 1000K
SYMBOL voltage 1648 272 R90
WINDOW 0 -32 56 VBottom 2
WINDOW 3 32 56 VTop 2
WINDOW 123 0 0 Left 0
WINDOW 39 0 0 Left 0
SYMATTR InstName V9
SYMATTR Value 0
SYMBOL pnp 2448 96 R0
SYMATTR InstName Q8
SYMBOL res 2496 192 R0
SYMATTR InstName R4
SYMATTR Value 100K
SYMBOL voltage 2528 16 R180
WINDOW 0 24 96 Left 2
WINDOW 3 24 16 Left 2
WINDOW 123 0 0 Left 0
WINDOW 39 0 0 Left 0
SYMATTR InstName V10
SYMATTR Value 5
SYMBOL npn 2272 192 R0
SYMATTR InstName Q10
SYMBOL res 2384 16 R0
SYMATTR InstName R5
SYMATTR Value 1000K
SYMBOL voltage 2256 240 R90
WINDOW 0 -32 56 VBottom 2
WINDOW 3 32 56 VTop 2
WINDOW 123 0 0 Left 0
WINDOW 39 0 0 Left 0
SYMATTR InstName V11
SYMATTR Value 5
TEXT -422 488 Left 2 !.op
